[General]
network = Network
sim-time-limit = 100s
