[General]
network = Scenario_2
sim-time-limit = 100s
