[General]
network = Tictoc13
sim-time-limit = 100s
